Metadata-Version: 2.2
Name: mf6Voronoi
Version: 0.0.1
Summary: Voronoi mesh generator for MODFLOW6 Disv models
Author-email: Saul Montoya <saulmontoya@hatarilabs.com>
License: CC0
Keywords: MODFLOW,groundwater,hydrogeology
Requires-Python: >=3.9
Description-Content-Type: text/markdown
License-File: LICENSE
Requires-Dist: numpy
Requires-Dist: fiona>=1.10.1
Requires-Dist: geopandas>=1.0.1
Requires-Dist: numpy>=2.1.3
Requires-Dist: pandas>=2.2.3
Requires-Dist: scipy>=1.14.1
Requires-Dist: shapely>=2.0.6

python-package-boilerplate
==========================

[![Build Status](https://travis-ci.org/mtchavez/python-package-boilerplate.png?branch=master)](https://travis-ci.org/mtchavez/python-package-boilerplate)
[![Requires.io](https://requires.io/github/mtchavez/python-package-boilerplate/requirements.svg?branch=master)](https://requires.io/github/mtchavez/python-package-boilerplate/requirements?branch=master)

Boilerplate for a Python Package

## Package

Basic structure of package is

```
├── README.md
├── packagename
│   ├── __init__.py
│   ├── packagename.py
│   └── version.py
├── pytest.ini
├── requirements.txt
├── setup.py
└── tests
    ├── __init__.py
    ├── helpers
    │   ├── __init__.py
    │   └── my_helper.py
    ├── tests_helper.py
    └── unit
        ├── __init__.py
        ├── test_example.py
        └── test_version.py
```

## Requirements

Package requirements are handled using pip. To install them do

```
pip install -r requirements.txt
```

## Tests

Testing is set up using [pytest](http://pytest.org) and coverage is handled
with the pytest-cov plugin.

Run your tests with ```py.test``` in the root directory.

Coverage is ran by default and is set in the ```pytest.ini``` file.
To see an html output of coverage open ```htmlcov/index.html``` after running the tests.

## Travis CI

There is a ```.travis.yml``` file that is set up to run your tests for python 2.7
and python 3.2, should you choose to use it.
